OPT_V10/Two_days_first_run/powerflow_results_t20.txt
Pandapower Network Debug Info
==================================================

BUS:
       vm_pu  va_degree      p_mw    q_mvar
0   0.992301   0.135111  0.000910  0.001185
1   0.987332   0.211229  0.001710  0.002122
2   0.982821   0.286634  0.002363  0.003254
3   0.988260   0.224872  0.002603  0.004330
4   0.988121   0.300854  0.003085  0.005968
5   0.991647   0.158630  0.003561  0.006187
6   0.989890   0.163032  0.001200  0.001022
7   0.997494   0.025502  0.001800  0.002013
8   0.997661   0.048915  0.002181  0.002902
9   0.999826   0.001409  0.008668  0.010207
10  0.999831   0.001340  0.010824  0.009651
11  0.999849   0.001210  0.012852  0.011782
12  0.999771   0.001793  0.010006  0.005097
13  0.999744   0.002000  0.011868  0.009394
14  0.999753   0.001996  0.012080  0.014051
15  0.999927   0.000701  0.000000  0.000000
16  0.999927   0.000707  0.000000  0.000000
17  0.999776   0.001846  0.000000  0.000000
18  0.999776   0.001857  0.000000  0.000000
19  1.000000   0.000000 -0.040102 -0.047648
20  1.000000   0.000007  0.000000  0.000000
21  1.000000   0.000000 -0.045954 -0.051754
22  1.000000   0.000007  0.000000  0.000000
--------------------------------------------------

LINE:
    p_from_mw  q_from_mvar   p_to_mw  q_to_mvar         pl_mw       ql_mvar  i_from_ka   i_to_ka      i_ka  vm_from_pu  va_from_degree  vm_to_pu  va_to_degree  loading_percent
0    0.040092     0.043648 -0.040088  -0.043646  3.435727e-06  2.678893e-06   0.002281  0.002281  0.002281    1.000000        0.000007  0.999927      0.000701         0.991815
1    0.045944     0.047754 -0.045932  -0.047745  1.181191e-05  9.209943e-06   0.002551  0.002551  0.002551    1.000000        0.000007  0.999776      0.001846         1.108958
2    0.032348     0.031642 -0.032345  -0.031639  2.832785e-06  2.208769e-06   0.001742  0.001742  0.001742    0.999927        0.000701  0.999849      0.001210         0.757305
3    0.010006     0.005097 -0.010006  -0.005097  4.362596e-08  3.401588e-08   0.000432  0.000432  0.000432    0.999776        0.001846  0.999771      0.001793         0.187960
4    0.023948     0.023446 -0.023947  -0.023445  6.144336e-07  4.790840e-07   0.001290  0.001290  0.001290    0.999776        0.001846  0.999753      0.001996         0.560978
5    0.007731     0.011004 -0.007646  -0.010938  8.460291e-05  6.596628e-05   0.019412  0.019412  0.019412    0.999927        0.000707  0.992301      0.135111         8.440166
6    0.004822     0.007257 -0.004764  -0.007211  5.892464e-05  4.594451e-05   0.012579  0.012579  0.012579    0.999776        0.001857  0.991647      0.158630         5.469155
7    0.001805     0.002017 -0.001800  -0.002013  4.950920e-06  3.860314e-06   0.003907  0.003907  0.003907    0.999776        0.001857  0.997494      0.025502         1.698820
8    0.005341     0.008929 -0.005322  -0.008914  1.862063e-05  1.451881e-05   0.015021  0.015021  0.015021    0.999776        0.001857  0.997661      0.048915         6.530755
9    0.008668     0.010207 -0.008668  -0.010207  6.203145e-08  4.836695e-08   0.000515  0.000515  0.000515    0.999831        0.001340  0.999826      0.001409         0.224130
10   0.019493     0.019858 -0.019492  -0.019857  3.787943e-07  2.953521e-07   0.001071  0.001071  0.001071    0.999849        0.001210  0.999831      0.001340         0.465734
11   0.011868     0.009394 -0.011868  -0.009394  1.120979e-07  8.740457e-08   0.000583  0.000583  0.000583    0.999753        0.001996  0.999744      0.002000         0.253358
12  -0.004088    -0.005388  0.004116   0.005410  2.776247e-05  2.164686e-05   0.009887  0.009887  0.009887    0.987332        0.211229  0.992301      0.135111         4.298900
13  -0.002603    -0.004330  0.002620   0.004344  1.745091e-05  1.360676e-05   0.007379  0.007379  0.007379    0.988260        0.224872  0.992301      0.135111         3.208300
14  -0.002363    -0.003254  0.002378   0.003266  1.514546e-05  1.180916e-05   0.005906  0.005906  0.005906    0.982821        0.286634  0.987332      0.211229         2.567828
15   0.003142     0.006012 -0.003085  -0.005968  5.625416e-05  4.386230e-05   0.009814  0.009814  0.009814    0.997661        0.048915  0.988121      0.300854         4.267048
16  -0.001200    -0.001022  0.001202   0.001024  2.208665e-06  1.722133e-06   0.002299  0.002299  0.002299    0.989890        0.163032  0.991647      0.158630         0.999543
--------------------------------------------------

TRAFO:
    p_hv_mw  q_hv_mvar   p_lv_mw  q_lv_mvar    pl_mw  ql_mvar   i_hv_ka   i_lv_ka  vm_hv_pu  va_hv_degree  vm_lv_pu  va_lv_degree  loading_percent
0  0.007741   0.012004 -0.007731  -0.011004  0.00001    0.001  0.000550  0.019412  0.999927      0.000701  0.999927      0.000707         0.142844
1  0.011978   0.019202 -0.011968  -0.018202  0.00001    0.001  0.000871  0.031450  0.999776      0.001846  0.999776      0.001857         0.226367
2  0.040102   0.047648 -0.040092  -0.043648  0.00001    0.004  0.000514  0.002281  1.000000      0.000000  1.000000      0.000007         0.155694
3  0.045954   0.051754 -0.045944  -0.047754  0.00001    0.004  0.000571  0.002551  1.000000      0.000000  1.000000      0.000007         0.173028
--------------------------------------------------
